#- oropt real-solver integration smoke deck (tests/integration/fixtures)
#- 20 TET4: a 1x1x3 mm cantilever column (3 cubes, 6 tets each) clamped at
#- z=0, +X bending load on the z=3 face, plus a 2-tet sacrificial fin whose
#- private apex node is orphaned (-> pinned) when the ~20% lowest-id
#- elements are deleted. Units: Mg / mm / s (force N, stress MPa).
/BEGIN
smoke
      2022         0
                  Mg                  mm                   s
                  Mg                  mm                   s
/MAT/LAW1/1
aluminium
#              RHO_I
              2.7E-9
#                  E                  Nu
             70000.0                0.33
/NODE
#  Node ID                   X                   Y                   Z
  60000001                   0                   0                   0
  60000002                   1                   0                   0
  60000003                   1                   1                   0
  60000004                   0                   1                   0
  60000005                   0                   0                   1
  60000006                   1                   0                   1
  60000007                   1                   1                   1
  60000008                   0                   1                   1
  60000009                   0                   0                   2
  60000010                   1                   0                   2
  60000011                   1                   1                   2
  60000012                   0                   1                   2
  60000013                   0                   0                   3
  60000014                   1                   0                   3
  60000015                   1                   1                   3
  60000016                   0                   1                   3
  60000017                   2                 0.5                 0.5
/PART/60000000
smoke_design
#   prop_ID    mat_ID subset_ID
         1         1         0
/TETRA4/60000000
  60000001  60000002  60000003  60000007  60000017
  60000002  60000002  60000007  60000006  60000017
  60000003  60000001  60000002  60000003  60000007
  60000004  60000001  60000003  60000004  60000007
  60000005  60000001  60000004  60000008  60000007
  60000006  60000001  60000008  60000005  60000007
  60000007  60000001  60000005  60000006  60000007
  60000008  60000001  60000006  60000002  60000007
  60000009  60000005  60000006  60000007  60000011
  60000010  60000005  60000007  60000008  60000011
  60000011  60000005  60000008  60000012  60000011
  60000012  60000005  60000012  60000009  60000011
  60000013  60000005  60000009  60000010  60000011
  60000014  60000005  60000010  60000006  60000011
  60000015  60000009  60000010  60000011  60000015
  60000016  60000009  60000011  60000012  60000015
  60000017  60000009  60000012  60000016  60000015
  60000018  60000009  60000016  60000013  60000015
  60000019  60000009  60000013  60000014  60000015
  60000020  60000009  60000014  60000010  60000015
#-  PROPERTIES:
/PROP/SOLID/1
smoke_solid
#   Isolid    Ismstr               Icpre   Itetra4  Itetra10     Imas    Iframe
         0         0                   0         0         0         0         0
#                qa                  qb                   h
                   0                   0                   0
#             dtmin
                   0
/GRNOD/NODE/60000000
clamped_base
  60000001  60000002  60000003  60000004
/BCS/1
clamp_z0
#  Tra rot   skew_ID  grnod_ID
   111 111         0  60000000
/GRNOD/NODE/60000001
tip_load_set
  60000013  60000014  60000015  60000016
/FUNCT/1
load_ramp
#                  X                   Y
                 0.0                 0.0
                 1.0                 1.0
                 2.0                 1.0
/CLOAD/1
tip_load_x
#   fct_ID       DIR   skew_ID   sens_ID  grnod_ID            Ascale_x            Fscale_y
         1         X         0         0  60000001                 1.0                 2.0
/END
