#- oropt demo case: TET4 cantilever beam (generated by scripts/make_demo_case.py)
/MAT/LAW1/1
aluminium
#        RHO_I
              2.7E-9
#            E              nu
         70000.             0.33
/NODE
#  Node ID                   X                   Y                   Z
  60000001                   0                   0                   0
  60000002                   0                   0                   5
  60000003                   0                   0                  10
  60000004                   0                   0                  15
  60000005                   0                   0                  20
  60000006                   0                   0                  25
  60000007                   0                   5                   0
  60000008                   0                   5                   5
  60000009                   0                   5                  10
  60000010                   0                   5                  15
  60000011                   0                   5                  20
  60000012                   0                   5                  25
  60000013                   0                  10                   0
  60000014                   0                  10                   5
  60000015                   0                  10                  10
  60000016                   0                  10                  15
  60000017                   0                  10                  20
  60000018                   0                  10                  25
  60000019                   0                  15                   0
  60000020                   0                  15                   5
# ... 700 like lines cut
/PART/60000000
cantilever_design
         1         1         0
/TETRA4/60000000
  60000001  60000001  60000037  60000043  60000044
  60000002  60000001  60000043  60000007  60000044
  60000003  60000001  60000007  60000008  60000044
  60000004  60000001  60000008  60000002  60000044
  60000005  60000001  60000002  60000038  60000044
  60000006  60000001  60000038  60000037  60000044
  60000007  60000002  60000038  60000044  60000045
  60000008  60000002  60000044  60000008  60000045
  60000009  60000002  60000008  60000009  60000045
  60000010  60000002  60000009  60000003  60000045
  60000011  60000002  60000003  60000039  60000045
  60000012  60000002  60000039  60000038  60000045
  60000013  60000003  60000039  60000045  60000046
  60000014  60000003  60000045  60000009  60000046
  60000015  60000003  60000009  60000010  60000046
  60000016  60000003  60000010  60000004  60000046
  60000017  60000003  60000004  60000040  60000046
  60000018  60000003  60000040  60000039  60000046
  60000019  60000004  60000040  60000046  60000047
  60000020  60000004  60000046  60000010  60000047
# ... 2830 like lines cut
#-  PROPERTIES:
/PROP/SOLID/1
solid_prop
/GRNOD/NODE/60000000
fixed_end
  60000001  60000002  60000003  60000004  60000005  60000006  60000007  60000008  60000009  60000010
  60000011  60000012  60000013  60000014  60000015  60000016  60000017  60000018  60000019  60000020
  60000021  60000022  60000023  60000024  60000025  60000026  60000027  60000028  60000029  60000030
  60000031  60000032  60000033  60000034  60000035  60000036
/BCS/1
fixed_end_clamp
#  Tra rot   skew_ID  grnod_ID
   111 111         0  60000000
/GRNOD/NODE/60000001
tip_load_set
  60000685  60000686  60000687  60000688  60000689  60000690  60000691  60000692  60000693  60000694
  60000695  60000696  60000697  60000698  60000699  60000700  60000701  60000702  60000703  60000704
  60000705  60000706  60000707  60000708  60000709  60000710  60000711  60000712  60000713  60000714
  60000715  60000716  60000717  60000718  60000719  60000720
/CLOAD/1
tip_load
#   fct_ID       DIR   skew_ID   sens_ID  grnod_ID
         1         Z         0         0  60000001
/END
